*Heading
** Job name: r5 Model name: NotchedTensileTest_r5_t2p5_implizit
** Generated by: Abaqus/CAE 2016
*Preprint, echo=NO, model=NO, history=NO, contact=NO
**
** PARTS
**
*Part, name=Part-1
*Node
      1,           0.,   4.33012724,           0.
      2,           0.,   4.33012724,         0.75
      3,           0.,          15.,         0.75
      4,           0.,          15.,           0.
      5,          10.,   4.33012724,         0.75
      6,          10.,   8.29156208,         0.75
      7,          10.,          15.,         0.75
      8,          10.,          15.,           0.
      9,          10.,   4.33012724,           0.
     10,          10.,   8.29156208,           0.
     11,           0.,   1.29999995,         0.75
     12,           0.,   1.29999995,           0.
     13,           0.,           0.,           0.
     14,           0.,           0.,         0.75
     15,   7.67195702,   1.29999995,           0.
     16,          7.5,           0.,           0.
     17,          7.5,           0.,         0.75
     18,   7.67195702,   1.29999995,         0.75
     19,           0.,   4.33012724,        0.375
     20,           0.,    4.8382163,         0.75
** ... 1762 like lines cut
*Element, type=C3D8R
  1,  132,  949, 1319,  309,    1,   19,  269,   60
  2,  949,  149,  629, 1319,   19,    2,   20,  269
  3,  309, 1319, 1320,  310,   60,  269,  270,   59
  4, 1319,  629,  630, 1320,  269,   20,   21,  270
  5,  310, 1320, 1321,  311,   59,  270,  271,   58
  6, 1320,  630,  631, 1321,  270,   21,   22,  271
  7,  311, 1321, 1322,  312,   58,  271,  272,   57
  8, 1321,  631,  632, 1322,  271,   22,   23,  272
  9,  312, 1322, 1323,  313,   57,  272,  273,   56
 10, 1322,  632,  633, 1323,  272,   23,   24,  273
 11,  313, 1323, 1324,  314,   56,  273,  274,   55
 12, 1323,  633,  634, 1324,  273,   24,   25,  274
 13,  314, 1324, 1325,  315,   55,  274,  275,   54
 14, 1324,  634,  635, 1325,  274,   25,   26,  275
 15,  315, 1325, 1326,  316,   54,  275,  276,   53
 16, 1325,  635,  636, 1326,  275,   26,   27,  276
 17,  316, 1326, 1327,  317,   53,  276,  277,   52
 18, 1326,  636,  637, 1327,  276,   27,   28,  277
 19,  317, 1327, 1328,  318,   52,  277,  278,   51
 20, 1327,  637,  638, 1328,  277,   28,   29,  278
** ... 1068 like lines cut
*Nset, nset=Set-22, generate
    1,  1782,     1
*Elset, elset=Set-22, generate
    1,  1088,     1
** Section: Section-1
*Solid Section, elset=Set-22, material=Material-1
,
*End Part
**  
**
** ASSEMBLY
**
*Assembly, name=Assembly
**  
*Instance, name=Part-1, part=Part-1
*End Instance
**  
*Elset, elset=ESetStrain, instance=Part-1
  715,  717,  719,  721,  723,  725,  727,  729,  731,  733,  735,  737,  739,  741,  743,  745
  747,  749,  751,  753,  755,  757,  759,  761,  763,  765,  767,  769,  771,  773,  775,  777
  779,  781,  783,  785,  787,  789,  791,  793,  795,  797,  799,  801,  803,  805,  807,  809
  819,  821,  823,  825,  827,  829,  831,  835,  837,  839,  841,  843,  845,  847,  851,  853
  855,  857,  859,  861,  863,  867,  869,  871,  873,  875,  877,  879,  883,  885,  887,  889
  891,  893,  895,  899,  901,  903,  905,  907,  909,  911,  915,  917,  919,  921,  923,  925
  927,  931,  933,  935,  937,  939,  941,  943,  947,  949,  951,  953,  955,  957,  959,  963
  965,  967,  969,  971,  973,  975,  979,  981,  983,  985,  987,  989,  991,  995,  997,  999
 1001, 1003, 1005, 1007, 1011, 1013, 1015, 1017, 1019, 1021, 1023, 1027, 1029, 1031, 1033, 1035
 1037, 1039, 1043, 1045, 1047, 1049, 1051, 1053, 1055, 1059, 1061, 1063, 1065, 1067, 1069, 1071
*Nset, nset=NSetDispField, instance=Part-1
   11,   14,  169,  170,  177,  178,  179,  180,  181,  182,  183,  184,  185,  186,  187,  188
  189,  190,  191,  192,  193,  194,  195,  196,  197,  198,  199,  200,  201,  202,  203,  204
  205,  206,  207,  208,  248,  249,  250,  251,  252,  253,  985,  986,  987,  988,  989,  990
  991,  992,  993,  994,  995,  996,  997,  998,  999, 1000, 1001, 1002, 1003, 1004, 1005, 1006
 1007, 1008, 1009, 1010, 1011, 1012, 1013, 1014, 1015, 1016, 1096, 1097, 1098, 1099, 1100, 1101
 1103, 1104, 1105, 1106, 1107, 1108, 1110, 1111, 1112, 1113, 1114, 1115, 1117, 1118, 1119, 1120
 1121, 1122, 1124, 1125, 1126, 1127, 1128, 1129, 1131, 1132, 1133, 1134, 1135, 1136, 1138, 1139
 1140, 1141, 1142, 1143, 1145, 1146, 1147, 1148, 1149, 1150, 1152, 1153, 1154, 1155, 1156, 1157
 1159, 1160, 1161, 1162, 1163, 1164, 1166, 1167, 1168, 1169, 1170, 1171, 1173, 1174, 1175, 1176
 1177, 1178, 1180, 1181, 1182, 1183, 1184, 1185, 1187, 1188, 1189, 1190, 1191, 1192, 1194, 1195
 1196, 1197, 1198, 1199, 1201, 1202, 1203, 1204, 1205, 1206
*Nset, nset=NSetForce, instance=Part-1
   3,   4,   7,   8,  40,  81, 101, 102, 103, 104, 105, 106, 107, 108, 109, 110
 111, 112, 113, 114, 115, 116, 133, 134, 135, 136, 137, 138, 139, 140, 141, 142
 143, 144, 145, 146, 147, 148, 965, 966, 967, 968, 969, 970, 971, 972, 973, 974
 975, 976, 977, 978, 979, 980
*Nset, nset=Set-5, instance=Part-1
   13,   14,   16,   17,  168,  174,  177,  178,  179,  180,  181,  182,  183,  184,  185,  186
  187,  188,  189,  190,  191,  192,  209,  210,  211,  212,  213,  214,  215,  216,  217,  218
  219,  220,  221,  222,  223,  224, 1065, 1066, 1067, 1068, 1069, 1070, 1071, 1072, 1073, 1074
 1075, 1076, 1077, 1078, 1079, 1080
*Elset, elset=Set-5, instance=Part-1
 719, 720, 725, 726, 731, 732, 737, 738, 743, 744, 749, 750, 755, 756, 761, 762
 767, 768, 773, 774, 779, 780, 785, 786, 791, 792, 797, 798, 803, 804, 809, 810
 815, 816
*Nset, nset=Set-13, instance=Part-1
  11,  12,  13,  14,  15,  16,  17,  18, 165, 166, 167, 168, 169, 170, 171, 172
 173, 174, 175, 176, 981, 982, 983, 984
*Elset, elset=Set-13, instance=Part-1
 715, 716, 717, 718, 719, 720, 811, 812, 813, 814, 815, 816
*Nset, nset=Set-14, instance=Part-1
    1,    2,    3,    4,    5,    9,   11,   12,   15,   18,   19,   20,   21,   22,   23,   24
   25,   26,   27,   28,   29,   30,   31,   32,   33,   34,   35,   36,   37,   38,   39,   40
   41,   42,   43,   44,   45,   46,   47,   48,   49,   50,   51,   52,   53,   54,   55,   56
   57,   58,   59,   60,   61,  165,  171,  241,  242,  243,  244,  245,  246,  247,  248,  249
  250,  251,  252,  253,  254,  255,  256,  257,  258,  259,  260,  261,  262,  263,  264,  265
  266,  267,  268,  269,  270,  271,  272,  273,  274,  275,  276,  277,  278,  279,  280,  281
  282,  283,  284,  285,  286,  287,  288, 1081, 1082, 1083, 1084, 1085, 1086, 1087, 1088, 1089
 1090, 1091, 1092, 1093, 1094
*Elset, elset=Set-14, instance=Part-1
    1,    2,    3,    4,    5,    6,    7,    8,    9,   10,   11,   12,   13,   14,   15,   16
   17,   18,   19,   20,   21,   22,   23,   24,   25,   26,   27,   28,   29,   30,   31,   32
   33,   34,   35,   36,   37,   38,   39,   40,   41,   42,  817,  818,  819,  820,  821,  822
  823,  824,  825,  826,  827,  828,  829,  830,  831,  832, 1073, 1074, 1075, 1076, 1077, 1078
 1079, 1080, 1081, 1082, 1083, 1084, 1085, 1086, 1087, 1088
*Nset, nset=Set-15, instance=Part-1
    1,    2,    3,    4,   11,   12,   13,   14,   19,   20,   21,   22,   23,   24,   25,   26
   27,   28,   29,   30,   31,   32,   33,   34,   35,   36,   37,   38,   39,   40,   41,   42
   43,   44,   45,   46,   47,   48,   49,   50,   51,   52,   53,   54,   55,   56,   57,   58
   59,   60,  165,  166,  167,  168,  169,  170,  241,  242,  243,  244,  245,  246,  247,  248
  249,  250,  251,  252,  253,  254,  269,  270,  271,  272,  273,  274,  275,  276,  277,  278
  279,  280,  281,  282,  283,  284,  285,  286,  287,  288,  981,  982, 1081, 1082, 1083, 1084
 1085, 1086, 1087
*Elset, elset=Set-15, instance=Part-1
   1,   2,   3,   4,   5,   6,   7,   8,   9,  10,  11,  12,  13,  14,  15,  16
  17,  18,  19,  20,  21,  22,  23,  24,  25,  26,  27,  28,  29,  30,  31,  32
  33,  34,  35,  36,  37,  38,  39,  40,  41,  42, 715, 716, 717, 718, 719, 720
 817, 818, 819, 820, 821, 822, 823, 824, 825, 826, 827, 828, 829, 830, 831, 832
*Nset, nset=Set-16, instance=Part-1
    1,    4,    8,    9,   10,   12,   13,   15,   16,   41,   42,   43,   44,   45,   46,   47
   48,   49,   50,   51,   52,   53,   54,   55,   56,   57,   58,   59,   60,   82,   83,   84
   85,   86,   87,   88,   89,   90,   91,   92,   93,   94,   95,   96,   97,   98,   99,  100
  101,  102,  103,  104,  105,  106,  107,  108,  109,  110,  111,  112,  113,  114,  115,  116
  117,  118,  119,  120,  121,  122,  123,  124,  125,  126,  127,  128,  129,  130,  131,  132
  166,  167,  172,  173,  209,  210,  211,  212,  213,  214,  215,  216,  217,  218,  219,  220
  221,  222,  223,  224,  225,  226,  227,  228,  229,  230,  231,  232,  233,  234,  235,  236
  237,  238,  239,  240,  241,  242,  243,  244,  245,  246,  247,  255,  256,  257,  258,  259
  260,  261,  309,  310,  311,  312,  313,  314,  315,  316,  317,  318,  319,  320,  321,  322
  323,  324,  325,  326,  327,  328,  329,  330,  331,  332,  333,  334,  335,  336,  337,  338
  339,  340,  341,  342,  343,  344,  345,  346,  347,  348,  349,  350,  351,  352,  353,  354
  355,  356,  357,  358,  359,  360,  361,  362,  363,  364,  365,  366,  367,  368,  369,  370
  371,  372,  373,  374,  375,  376,  377,  378,  379,  380,  381,  382,  383,  384,  385,  386
  387,  388,  389,  390,  391,  392,  393,  394,  395,  396,  397,  398,  399,  400,  401,  402
  403,  404,  405,  406,  407,  408,  409,  410,  411,  412,  413,  414,  415,  416,  417,  418
  419,  420,  421,  422,  423,  424,  425,  426,  427,  428,  429,  430,  431,  432,  433,  434
  435,  436,  437,  438,  439,  440,  441,  442,  443,  444,  445,  446,  447,  448,  449,  450
  451,  452,  453,  454,  455,  456,  457,  458,  459,  460,  461,  462,  463,  464,  465,  466
  467,  468,  469,  470,  471,  472,  473,  474,  475,  476,  477,  478,  479,  480,  481,  482
  483,  484,  485,  486,  487,  488,  489,  490,  491,  492,  493,  494,  495,  496,  497,  498
** ... 18 like lines cut
*Elset, elset=Set-16, instance=Part-1
    1,    3,    5,    7,    9,   11,   13,   15,   17,   19,   21,   23,   25,   27,   29,   31
   33,   35,   37,   39,   41,   43,   45,   47,   49,   51,   53,   55,   57,   59,   61,   63
   65,   67,   69,   71,   73,   75,   77,   79,   81,   83,   85,   87,   89,   91,   93,   95
   97,   99,  101,  103,  105,  107,  109,  111,  113,  115,  117,  119,  121,  123,  125,  127
  129,  131,  133,  135,  137,  139,  141,  143,  145,  147,  149,  151,  153,  155,  157,  159
  161,  163,  165,  167,  169,  171,  173,  175,  177,  179,  181,  183,  185,  187,  189,  191
  193,  195,  197,  199,  201,  203,  205,  207,  209,  211,  213,  215,  217,  219,  221,  223
  225,  227,  229,  231,  233,  235,  237,  239,  241,  243,  245,  247,  249,  251,  253,  255
  257,  259,  261,  263,  265,  267,  269,  271,  273,  275,  277,  279,  281,  283,  285,  287
  289,  291,  293,  295,  297,  299,  301,  303,  305,  307,  309,  311,  313,  315,  317,  319
  321,  323,  325,  327,  329,  331,  333,  335,  337,  339,  341,  343,  345,  347,  349,  351
  353,  355,  357,  359,  361,  363,  365,  367,  369,  371,  373,  375,  377,  379,  381,  383
  385,  387,  389,  391,  393,  395,  397,  399,  401,  403,  405,  407,  409,  411,  413,  415
  417,  419,  421,  423,  425,  427,  429,  431,  433,  435,  437,  439,  441,  443,  445,  447
  449,  451,  453,  455,  457,  459,  461,  463,  465,  467,  469,  471,  473,  475,  477,  479
  481,  483,  485,  487,  489,  491,  493,  495,  497,  499,  501,  503,  505,  507,  509,  511
  513,  515,  517,  519,  521,  523,  525,  527,  529,  531,  533,  535,  537,  539,  541,  543
  545,  547,  549,  551,  553,  555,  557,  559,  561,  563,  565,  567,  569,  571,  573,  575
  577,  579,  581,  583,  585,  587,  589,  591,  593,  595,  597,  599,  601,  603,  605,  607
  609,  611,  613,  615,  617,  619,  621,  623,  625,  627,  629,  631,  633,  635,  637,  639
** ... 14 like lines cut
*Nset, nset=Set-17, instance=Part-1
   3,   4,   7,   8,  40,  81, 101, 102, 103, 104, 105, 106, 107, 108, 109, 110
 111, 112, 113, 114, 115, 116, 133, 134, 135, 136, 137, 138, 139, 140, 141, 142
 143, 144, 145, 146, 147, 148, 965, 966, 967, 968, 969, 970, 971, 972, 973, 974
 975, 976, 977, 978, 979, 980
*Elset, elset=Set-17, instance=Part-1
  41,  42,  83,  84, 125, 126, 167, 168, 209, 210, 251, 252, 293, 294, 335, 336
 377, 378, 419, 420, 461, 462, 503, 504, 545, 546, 587, 588, 629, 630, 671, 672
 713, 714
*Nset, nset=Set-18, instance=Part-1
    1,    2,    3,    4,   11,   12,   13,   14,   19,   20,   21,   22,   23,   24,   25,   26
   27,   28,   29,   30,   31,   32,   33,   34,   35,   36,   37,   38,   39,   40,   41,   42
   43,   44,   45,   46,   47,   48,   49,   50,   51,   52,   53,   54,   55,   56,   57,   58
   59,   60,  165,  166,  167,  168,  169,  170,  241,  242,  243,  244,  245,  246,  247,  248
  249,  250,  251,  252,  253,  254,  269,  270,  271,  272,  273,  274,  275,  276,  277,  278
  279,  280,  281,  282,  283,  284,  285,  286,  287,  288,  981,  982, 1081, 1082, 1083, 1084
 1085, 1086, 1087
*Elset, elset=Set-18, instance=Part-1
   1,   2,   3,   4,   5,   6,   7,   8,   9,  10,  11,  12,  13,  14,  15,  16
  17,  18,  19,  20,  21,  22,  23,  24,  25,  26,  27,  28,  29,  30,  31,  32
  33,  34,  35,  36,  37,  38,  39,  40,  41,  42, 715, 716, 717, 718, 719, 720
 817, 818, 819, 820, 821, 822, 823, 824, 825, 826, 827, 828, 829, 830, 831, 832
*Nset, nset=Set-19, instance=Part-1
   13,   14,   16,   17,  168,  174,  177,  178,  179,  180,  181,  182,  183,  184,  185,  186
  187,  188,  189,  190,  191,  192,  209,  210,  211,  212,  213,  214,  215,  216,  217,  218
  219,  220,  221,  222,  223,  224, 1065, 1066, 1067, 1068, 1069, 1070, 1071, 1072, 1073, 1074
 1075, 1076, 1077, 1078, 1079, 1080
*Elset, elset=Set-19, instance=Part-1
 719, 720, 725, 726, 731, 732, 737, 738, 743, 744, 749, 750, 755, 756, 761, 762
 767, 768, 773, 774, 779, 780, 785, 786, 791, 792, 797, 798, 803, 804, 809, 810
 815, 816
*Nset, nset=Set-20, instance=Part-1
    1,    4,    8,    9,   10,   12,   13,   15,   16,   41,   42,   43,   44,   45,   46,   47
   48,   49,   50,   51,   52,   53,   54,   55,   56,   57,   58,   59,   60,   82,   83,   84
   85,   86,   87,   88,   89,   90,   91,   92,   93,   94,   95,   96,   97,   98,   99,  100
  101,  102,  103,  104,  105,  106,  107,  108,  109,  110,  111,  112,  113,  114,  115,  116
  117,  118,  119,  120,  121,  122,  123,  124,  125,  126,  127,  128,  129,  130,  131,  132
  166,  167,  172,  173,  209,  210,  211,  212,  213,  214,  215,  216,  217,  218,  219,  220
  221,  222,  223,  224,  225,  226,  227,  228,  229,  230,  231,  232,  233,  234,  235,  236
  237,  238,  239,  240,  241,  242,  243,  244,  245,  246,  247,  255,  256,  257,  258,  259
  260,  261,  309,  310,  311,  312,  313,  314,  315,  316,  317,  318,  319,  320,  321,  322
  323,  324,  325,  326,  327,  328,  329,  330,  331,  332,  333,  334,  335,  336,  337,  338
  339,  340,  341,  342,  343,  344,  345,  346,  347,  348,  349,  350,  351,  352,  353,  354
  355,  356,  357,  358,  359,  360,  361,  362,  363,  364,  365,  366,  367,  368,  369,  370
  371,  372,  373,  374,  375,  376,  377,  378,  379,  380,  381,  382,  383,  384,  385,  386
  387,  388,  389,  390,  391,  392,  393,  394,  395,  396,  397,  398,  399,  400,  401,  402
  403,  404,  405,  406,  407,  408,  409,  410,  411,  412,  413,  414,  415,  416,  417,  418
  419,  420,  421,  422,  423,  424,  425,  426,  427,  428,  429,  430,  431,  432,  433,  434
  435,  436,  437,  438,  439,  440,  441,  442,  443,  444,  445,  446,  447,  448,  449,  450
  451,  452,  453,  454,  455,  456,  457,  458,  459,  460,  461,  462,  463,  464,  465,  466
  467,  468,  469,  470,  471,  472,  473,  474,  475,  476,  477,  478,  479,  480,  481,  482
  483,  484,  485,  486,  487,  488,  489,  490,  491,  492,  493,  494,  495,  496,  497,  498
** ... 18 like lines cut
*Elset, elset=Set-20, instance=Part-1
    1,    3,    5,    7,    9,   11,   13,   15,   17,   19,   21,   23,   25,   27,   29,   31
   33,   35,   37,   39,   41,   43,   45,   47,   49,   51,   53,   55,   57,   59,   61,   63
   65,   67,   69,   71,   73,   75,   77,   79,   81,   83,   85,   87,   89,   91,   93,   95
   97,   99,  101,  103,  105,  107,  109,  111,  113,  115,  117,  119,  121,  123,  125,  127
  129,  131,  133,  135,  137,  139,  141,  143,  145,  147,  149,  151,  153,  155,  157,  159
  161,  163,  165,  167,  169,  171,  173,  175,  177,  179,  181,  183,  185,  187,  189,  191
  193,  195,  197,  199,  201,  203,  205,  207,  209,  211,  213,  215,  217,  219,  221,  223
  225,  227,  229,  231,  233,  235,  237,  239,  241,  243,  245,  247,  249,  251,  253,  255
  257,  259,  261,  263,  265,  267,  269,  271,  273,  275,  277,  279,  281,  283,  285,  287
  289,  291,  293,  295,  297,  299,  301,  303,  305,  307,  309,  311,  313,  315,  317,  319
  321,  323,  325,  327,  329,  331,  333,  335,  337,  339,  341,  343,  345,  347,  349,  351
  353,  355,  357,  359,  361,  363,  365,  367,  369,  371,  373,  375,  377,  379,  381,  383
  385,  387,  389,  391,  393,  395,  397,  399,  401,  403,  405,  407,  409,  411,  413,  415
  417,  419,  421,  423,  425,  427,  429,  431,  433,  435,  437,  439,  441,  443,  445,  447
  449,  451,  453,  455,  457,  459,  461,  463,  465,  467,  469,  471,  473,  475,  477,  479
  481,  483,  485,  487,  489,  491,  493,  495,  497,  499,  501,  503,  505,  507,  509,  511
  513,  515,  517,  519,  521,  523,  525,  527,  529,  531,  533,  535,  537,  539,  541,  543
  545,  547,  549,  551,  553,  555,  557,  559,  561,  563,  565,  567,  569,  571,  573,  575
  577,  579,  581,  583,  585,  587,  589,  591,  593,  595,  597,  599,  601,  603,  605,  607
  609,  611,  613,  615,  617,  619,  621,  623,  625,  627,  629,  631,  633,  635,  637,  639
** ... 14 like lines cut
*Nset, nset=Set-21, instance=Part-1
   3,   4,   7,   8,  40,  81, 101, 102, 103, 104, 105, 106, 107, 108, 109, 110
 111, 112, 113, 114, 115, 116, 133, 134, 135, 136, 137, 138, 139, 140, 141, 142
 143, 144, 145, 146, 147, 148, 965, 966, 967, 968, 969, 970, 971, 972, 973, 974
 975, 976, 977, 978, 979, 980
*Elset, elset=Set-21, instance=Part-1
  41,  42,  83,  84, 125, 126, 167, 168, 209, 210, 251, 252, 293, 294, 335, 336
 377, 378, 419, 420, 461, 462, 503, 504, 545, 546, 587, 588, 629, 630, 671, 672
 713, 714
*End Assembly
*Amplitude, name=Amp-1
             0.,              0.,              1.,          1.2462
** 
** MATERIALS
** 
*Material, name=Material-1
*Density
 7.85e-09,
*Elastic
210000., 0.3
*Plastic
*INCLUDE, INPUT=FlowCurve.inp
*Time Points, name=TimePoints-1
0., 0.0120482, 0.0240964, 0.0361446, 0.0481928, 0.060241, 0.0722892, 0.0843373
0.0963855, 0.108434, 0.120482, 0.13253, 0.144578, 0.156627, 0.168675, 0.180723
0.192771, 0.204819, 0.216867, 0.228916, 0.240964, 0.253012, 0.26506, 0.277108
0.289157, 0.301205, 0.313253, 0.325301, 0.337349, 0.349398, 0.361446, 0.373494
0.385542, 0.39759, 0.409639, 0.421687, 0.433735, 0.445783, 0.457831, 0.46988
0.481928, 0.493976, 0.506024, 0.518072, 0.53012, 0.542169, 0.554217, 0.566265
0.578313, 0.590361, 0.60241, 0.614458, 0.626506, 0.638554, 0.650602, 0.662651
0.674699, 0.686747, 0.698795, 0.710843, 0.722892, 0.73494, 0.746988, 0.759036
0.771084, 0.783133, 0.795181, 0.807229, 0.819277, 0.831325, 0.843373, 0.855422
0.86747, 0.879518, 0.891566, 0.903614, 0.915663, 0.927711, 0.939759, 0.951807
0.963855, 0.975904, 0.987952, 1.
** ----------------------------------------------------------------
** 
** STEP: Step-1
** 
*Step, name=Step-1, nlgeom=YES
*Static
1., 1., 1e-05, 1.
** 
** BOUNDARY CONDITIONS
** 
** Name: loading Type: Displacement/Rotation
*Boundary
Set-21, 2, 2, 1.2462
** Name: xsym Type: Symmetry/Antisymmetry/Encastre
*Boundary
Set-18, XSYMM
** Name: ysym Type: Symmetry/Antisymmetry/Encastre
*Boundary
Set-19, YSYMM
** Name: zsym Type: Symmetry/Antisymmetry/Encastre
*Boundary
Set-20, ZSYMM
** 
** OUTPUT REQUESTS
** 
*Restart, write, frequency=0
** 
** FIELD OUTPUT: F-Output-1
** 
*Output, field, time points=TimePoints-1
*Node Output
CF, COORD, RF, U
*Element Output, directions=YES
COORD, LE, PE, PEEQ, PEMAG, S
*Contact Output
CDISP, CSTRESS
** 
** HISTORY OUTPUT: H-Output-1
** 
*Output, history, variable=PRESELECT
*End Step
