*Heading
** Job name: NotchedTensileTest_r15_t2p5_implizit Model name: NotchedTensileTest_r15_t2p5_implizit
** Generated by: Abaqus/CAE 2016
*Preprint, echo=NO, model=NO, history=NO, contact=NO
**
** PARTS
**
*Part, name=Part-1
*Node
      1,   7.55642605,   1.29984403,           0.
      2,   7.55642605,   1.29984403,         0.75
      3,          7.5,           0.,         0.75
      4,          7.5,           0.,           0.
      5,           0.,   1.29984403,         0.75
      6,           0.,           0.,         0.75
      7,           0.,           0.,           0.
      8,           0.,   1.29984403,           0.
      9,          10.,   8.29156208,           0.
     10,          10.,   8.29156208,         0.75
     11,           0.,   8.29156208,           0.
     12,           0.,   8.29156208,         0.75
     13,          10.,          15.,         0.75
     14,          10.,          15.,           0.
     15,           0.,          15.,           0.
     16,           0.,          15.,         0.75
     17,   7.55642605,   1.29984403,        0.375
     18,   7.52508688,  0.867167115,         0.75
     19,   7.50627327,  0.433764964,         0.75
     20,          7.5,           0.,        0.375
** ... 1561 like lines cut
*Element, type=C3D8R
 1,   58,  317, 1177,  257,    1,   17,  253,   22
 2,  317,   74,  287, 1177,   17,    2,   18,  253
 3,  257, 1177, 1178,  258,   22,  253,  254,   21
 4, 1177,  287,  288, 1178,  253,   18,   19,  254
 5,  258, 1178,  332,   29,   21,  254,   20,    4
 6, 1178,  288,   73,  332,  254,   19,    3,   20
 7,   57,  318, 1179,  259,   58,  317, 1177,  257
 8,  318,   75,  289, 1179,  317,   74,  287, 1177
 9,  259, 1179, 1180,  260,  257, 1177, 1178,  258
10, 1179,  289,  290, 1180, 1177,  287,  288, 1178
11,  260, 1180,  333,   30,  258, 1178,  332,   29
12, 1180,  290,   72,  333, 1178,  288,   73,  332
13,   56,  319, 1181,  261,   57,  318, 1179,  259
14,  319,   76,  291, 1181,  318,   75,  289, 1179
15,  261, 1181, 1182,  262,  259, 1179, 1180,  260
16, 1181,  291,  292, 1182, 1179,  289,  290, 1180
17,  262, 1182,  334,   31,  260, 1180,  333,   30
18, 1182,  292,   71,  334, 1180,  290,   72,  333
19,   55,  320, 1183,  263,   56,  319, 1181,  261
20,  320,   77,  293, 1183,  319,   76,  291, 1181
** ... 940 like lines cut
*Nset, nset=Specimen, generate
    1,  1581,     1
*Elset, elset=Specimen, generate
   1,  960,    1
** Section: Section-1
*Solid Section, elset=Specimen, material=Material-1
,
*End Part
**  
**
** ASSEMBLY
**
*Assembly, name=Assembly
**  
*Instance, name=Part-1-1, part=Part-1
*End Instance
**  
*Elset, elset=ESETSTRAIN, instance=Part-1-1
   8,  10,  12,  14,  16,  18,  20,  22,  24,  26,  28,  30,  32,  34,  36,  38
  40,  42,  44,  46,  48,  50,  52,  54,  56,  58,  60,  62,  64,  66,  68,  70
  72,  74,  76,  78,  80,  82,  84,  86,  88,  90,  92,  94,  96, 125, 127, 129
 131, 133, 135, 137, 139, 141, 143, 145, 147, 153, 155, 157, 159, 161, 163, 165
 167, 169, 171, 173, 175, 181, 183, 185, 187, 189, 191, 193, 195, 197, 199, 201
 203, 209, 211, 213, 215, 217, 219, 221, 223, 225, 227, 229, 231, 237, 239, 241
 243, 245, 247, 249, 251, 253, 255, 257, 259, 265, 267, 269, 271, 273, 275, 277
 279, 281, 283, 285, 287, 293, 295, 297, 299, 301, 303, 305, 307, 309, 311, 313
 315, 321, 323, 325, 327, 329, 331, 333, 335, 337, 339, 341, 343, 349, 351, 353
 355, 357, 359, 361, 363, 365, 367, 369, 371, 377, 379, 381, 383, 385, 387, 389
 391, 393, 395, 397, 399, 405, 407, 409, 411, 413, 415, 417, 419, 421, 423, 425
 427, 433, 435, 437, 439, 441, 443, 445, 447, 449, 451, 453, 455, 461, 463, 465
 467, 469, 471, 473, 475, 477, 479, 481, 483, 489, 491, 493, 495, 497, 499, 501
 503, 505, 507, 509, 511, 517, 519, 521, 523, 525, 527, 529, 531, 533, 535, 537
 539,
*Nset, nset=NSETDISP, instance=Part-1-1
 16,
*Nset, nset=NSETDISPFIELD, instance=Part-1-1
   5,   6,  24,  25,  59,  60,  61,  62,  63,  64,  65,  66,  67,  68,  69,  70
  71,  72,  73,  74,  75,  76,  77,  78,  79,  80,  81,  82,  83,  84,  85,  86
  87,  88, 130, 131, 132, 133, 134, 135, 136, 137, 138, 139, 140, 141, 287, 288
 289, 290, 291, 292, 293, 294, 295, 296, 297, 298, 299, 300, 301, 302, 303, 304
 305, 306, 307, 308, 309, 310, 311, 312, 313, 314, 315, 316, 373, 374, 375, 376
 377, 378, 379, 380, 381, 382, 383, 384, 386, 387, 388, 389, 390, 391, 392, 393
 394, 395, 396, 397, 399, 400, 401, 402, 403, 404, 405, 406, 407, 408, 409, 410
 412, 413, 414, 415, 416, 417, 418, 419, 420, 421, 422, 423, 425, 426, 427, 428
 429, 430, 431, 432, 433, 434, 435, 436, 438, 439, 440, 441, 442, 443, 444, 445
 446, 447, 448, 449, 451, 452, 453, 454, 455, 456, 457, 458, 459, 460, 461, 462
 464, 465, 466, 467, 468, 469, 470, 471, 472, 473, 474, 475, 477, 478, 479, 480
 481, 482, 483, 484, 485, 486, 487, 488, 490, 491, 492, 493, 494, 495, 496, 497
 498, 499, 500, 501, 503, 504, 505, 506, 507, 508, 509, 510, 511, 512, 513, 514
 516, 517, 518, 519, 520, 521, 522, 523, 524, 525, 526, 527, 529, 530, 531, 532
 533, 534, 535, 536, 537, 538, 539, 540, 542, 543, 544, 545, 546, 547, 548, 549
 550, 551, 552, 553, 555, 556, 557, 558, 559, 560, 561, 562, 563, 564, 565, 566
*Nset, nset=NSETFORCE, instance=Part-1-1
  13,  14,  15,  16, 197, 222, 223, 224, 225, 226, 227, 228, 229, 230, 231, 232
 233, 234, 235, 236, 237, 238, 239, 240, 241, 242, 243, 244, 245, 246, 247, 248
 249, 250, 251, 252, 802, 803, 804, 805, 806, 807, 808, 809, 810, 811, 812, 813
 814, 815, 816
*Elset, elset=NSETFORCE, instance=Part-1-1, generate
 545,  948,   13
*Nset, nset=XSYM, instance=Part-1-1
   5,   6,   7,   8,  11,  12,  15,  16,  23,  24,  25,  26,  27,  28, 116, 117
 118, 119, 120, 121, 122, 123, 124, 125, 126, 127, 128, 129, 130, 131, 132, 133
 134, 135, 136, 137, 138, 139, 140, 141, 142, 198, 199, 200, 201, 202, 203, 204
 205, 206, 207, 208, 209, 210, 211, 212, 213, 214, 215, 216, 217, 218, 219, 220
 221, 222, 255, 256, 360, 361, 362, 363, 364, 365, 366, 367, 368, 369, 370, 371
 372, 790, 791, 792, 793, 794, 795, 796, 797, 798, 799, 800, 801
*Elset, elset=XSYM, instance=Part-1-1
  91,  92,  93,  94,  95,  96, 517, 518, 519, 520, 521, 522, 523, 524, 525, 526
 527, 528, 529, 530, 531, 532, 533, 534, 535, 536, 537, 538, 539, 540, 541, 542
 543, 544, 935, 936, 937, 938, 939, 940, 941, 942, 943, 944, 945, 946, 947, 948
 949, 950, 951, 952, 953, 954, 955, 956, 957, 958, 959, 960
*Nset, nset=YSYM, instance=Part-1-1
   3,   4,   6,   7,  20,  26,  29,  30,  31,  32,  33,  34,  35,  36,  37,  38
  39,  40,  41,  42,  43,  59,  60,  61,  62,  63,  64,  65,  66,  67,  68,  69
  70,  71,  72,  73, 332, 333, 334, 335, 336, 337, 338, 339, 340, 341, 342, 343
 344, 345, 346
*Elset, elset=YSYM, instance=Part-1-1
  5,  6, 11, 12, 17, 18, 23, 24, 29, 30, 35, 36, 41, 42, 47, 48
 53, 54, 59, 60, 65, 66, 71, 72, 77, 78, 83, 84, 89, 90, 95, 96
*Nset, nset=ZSYM, instance=Part-1-1
    1,    4,    7,    8,    9,   11,   14,   15,   21,   22,   27,   28,   29,   30,   31,   32
   33,   34,   35,   36,   37,   38,   39,   40,   41,   42,   43,   44,   45,   46,   47,   48
   49,   50,   51,   52,   53,   54,   55,   56,   57,   58,   89,   90,   91,   92,   93,   94
   95,   96,   97,   98,   99,  100,  101,  116,  117,  118,  119,  120,  121,  122,  123,  124
  125,  126,  127,  128,  158,  159,  160,  161,  162,  163,  164,  165,  166,  167,  168,  169
  170,  171,  172,  185,  186,  187,  188,  189,  190,  191,  192,  193,  194,  195,  196,  210
  211,  212,  213,  214,  215,  216,  217,  218,  219,  220,  221,  223,  224,  225,  226,  227
  228,  229,  230,  231,  232,  233,  234,  235,  236,  237,  257,  258,  259,  260,  261,  262
  263,  264,  265,  266,  267,  268,  269,  270,  271,  272,  273,  274,  275,  276,  277,  278
  279,  280,  281,  282,  283,  284,  285,  286,  568,  569,  570,  571,  572,  573,  574,  575
  576,  577,  578,  579,  580,  581,  582,  583,  584,  585,  586,  587,  588,  589,  590,  591
  592,  593,  594,  595,  596,  597,  598,  599,  600,  601,  602,  603,  604,  605,  606,  607
  608,  609,  610,  611,  612,  613,  614,  615,  616,  617,  618,  619,  620,  621,  622,  623
  624,  625,  626,  627,  628,  629,  630,  631,  632,  633,  634,  635,  636,  637,  638,  639
  640,  641,  642,  643,  644,  645,  646,  647,  648,  649,  650,  651,  652,  653,  654,  655
  656,  657,  658,  659,  660,  661,  662,  663,  664,  665,  666,  667,  668,  669,  670,  671
  672,  673,  674,  675,  676,  677,  678,  679,  680,  681,  682,  683,  684,  685,  686,  687
  688,  689,  690,  691,  692,  693,  694,  695,  696,  697,  698,  699,  700,  701,  702,  703
  704,  705,  706,  707,  708,  709,  710,  711,  712,  713,  714,  715,  716,  717,  718,  719
  720,  721,  722,  723,  724,  725,  726,  727,  728,  729,  730,  731,  732,  733,  734,  735
** ... 13 like lines cut
*Elset, elset=ZSYM, instance=Part-1-1
   1,   3,   5,   7,   9,  11,  13,  15,  17,  19,  21,  23,  25,  27,  29,  31
  33,  35,  37,  39,  41,  43,  45,  47,  49,  51,  53,  55,  57,  59,  61,  63
  65,  67,  69,  71,  73,  75,  77,  79,  81,  83,  85,  87,  89,  91,  93,  95
  98, 100, 102, 104, 106, 108, 110, 112, 114, 116, 118, 120, 122, 124, 126, 128
 130, 132, 134, 136, 138, 140, 142, 144, 146, 148, 150, 152, 154, 156, 158, 160
 162, 164, 166, 168, 170, 172, 174, 176, 178, 180, 182, 184, 186, 188, 190, 192
 194, 196, 198, 200, 202, 204, 206, 208, 210, 212, 214, 216, 218, 220, 222, 224
 226, 228, 230, 232, 234, 236, 238, 240, 242, 244, 246, 248, 250, 252, 254, 256
 258, 260, 262, 264, 266, 268, 270, 272, 274, 276, 278, 280, 282, 284, 286, 288
 290, 292, 294, 296, 298, 300, 302, 304, 306, 308, 310, 312, 314, 316, 318, 320
 322, 324, 326, 328, 330, 332, 334, 336, 338, 340, 342, 344, 346, 348, 350, 352
 354, 356, 358, 360, 362, 364, 366, 368, 370, 372, 374, 376, 378, 380, 382, 384
 386, 388, 390, 392, 394, 396, 398, 400, 402, 404, 406, 408, 410, 412, 414, 416
 418, 420, 422, 424, 426, 428, 430, 432, 434, 436, 438, 440, 442, 444, 446, 448
 450, 452, 454, 456, 458, 460, 462, 464, 466, 468, 470, 472, 474, 476, 478, 480
 482, 484, 486, 488, 490, 492, 494, 496, 498, 500, 502, 504, 506, 508, 510, 512
 514, 516, 518, 520, 522, 524, 526, 528, 530, 532, 534, 536, 538, 540, 542, 544
 558, 559, 560, 561, 562, 563, 564, 565, 566, 567, 568, 569, 570, 584, 585, 586
 587, 588, 589, 590, 591, 592, 593, 594, 595, 596, 610, 611, 612, 613, 614, 615
 616, 617, 618, 619, 620, 621, 622, 636, 637, 638, 639, 640, 641, 642, 643, 644
** ... 10 like lines cut
*End Assembly
*Amplitude, name=Amp-1
             0.,              0.,              1.,          1.2462
** 
** MATERIALS
** 
*Material, name=Material-1
*Density
 7.85e-09,
*Elastic
210000., 0.3
*Plastic
*INCLUDE, INPUT=FlowCurve.inp
*Time Points, name=TimePoints-1
0., 0.0169492, 0.0338983, 0.0508475, 0.0677966, 0.0847458, 0.101695, 0.118644
0.135593, 0.152542, 0.169492, 0.186441, 0.20339, 0.220339, 0.237288, 0.254237
0.271186, 0.288136, 0.305085, 0.322034, 0.338983, 0.355932, 0.372881, 0.389831
0.40678, 0.423729, 0.440678, 0.457627, 0.474576, 0.491525, 0.508475, 0.525424
0.542373, 0.559322, 0.576271, 0.59322, 0.610169, 0.627119, 0.644068, 0.661017
0.677966, 0.694915, 0.711864, 0.728814, 0.745763, 0.762712, 0.779661, 0.79661
0.813559, 0.830508, 0.847458, 0.864407, 0.881356, 0.898305, 0.915254, 0.932203
0.949153, 0.966102, 0.983051, 1.
** ----------------------------------------------------------------
** 
** STEP: Step-1
** 
*Step, name=Step-1, nlgeom=YES
*Static
1., 1., 1e-05, 1.
** 
** BOUNDARY CONDITIONS
** 
** Name: loading Type: Displacement/Rotation
*Boundary
NSETFORCE, 2, 2, 1.2462
** Name: xsym Type: Symmetry/Antisymmetry/Encastre
*Boundary
XSYM, XSYMM
** Name: ysym Type: Symmetry/Antisymmetry/Encastre
*Boundary
YSYM, YSYMM
** Name: zsym Type: Symmetry/Antisymmetry/Encastre
*Boundary
ZSYM, ZSYMM
** 
** OUTPUT REQUESTS
** 
*Restart, write, frequency=0
** 
** FIELD OUTPUT: F-Output-1
** 
*Output, field, variable=PRESELECT, time points=TimePoints-1
*Node Output
A, COORD, RF, U, V
*Element Output, directions=YES
COORD, EVF, LE, PE, PEEQ, PEEQVAVG, PEVAVG, S, SDV, STATUS, SVAVG
** HISTORY OUTPUT: H-Output-1
** 
*Output, history, variable=PRESELECT, time points=TimePoints-1
*End Step
